63
dan002.xyz	      0.0000000
  C       -0.81991        3.04227        0.32784
  C       -2.23364        2.32897        0.36722
  N       -2.74713        0.95592        0.75505
  C       -4.18417        0.82826        0.37692
  C       -4.35730        0.67096       -1.16511
  N       -4.56003       -0.74329       -1.62857
  C       -3.41645       -1.73192       -1.44258
  C       -3.09677       -2.83555       -0.35464
  C       -1.65975       -2.76801        0.24872
  N       -1.26876       -1.47034        0.88358
  C        0.19110       -1.52333        1.21828
  C        0.81941       -0.13734        1.52139
  N        0.43311        0.86341        0.49181
  C        0.35471        2.26171        0.99397
  C       -2.43731        0.41221        2.11332
  C       -2.12542       -1.11076        2.05877
  C       -4.92452       -0.70613       -3.07781
  C        1.09055        0.70504       -0.83652
  C        2.60244        0.71137       -0.78335
  C        3.33663       -0.47640       -0.95840
  C        4.73832       -0.44418       -0.88134
  C        5.39032        0.77410       -0.62415
  C        4.61286        1.93725       -0.45082
  N        3.26176        1.87050       -0.53545
  C        5.23859        3.16723       -0.18293
  C        6.63885        3.23824       -0.09122
  C        7.41470        2.08038       -0.26870
  C        6.79232        0.84929       -0.53455
  H       -0.90511        4.01577        0.82299
  H       -0.55736        3.24980       -0.71532
  H       -1.69039        1.66584       -0.33197
  H       -2.16075        2.52018        1.44625
  H       -4.72003        1.72176        0.70881
  H       -4.64077       -0.03407        0.86819
  H       -5.25038        1.24379       -1.43499
  H       -3.50810        1.11333       -1.68980
  H       -3.14215       -1.08380       -0.61222
  H       -4.26499       -2.42884       -1.59532
  H       -3.17962       -3.82525       -0.82206
  H       -3.83883       -2.79538        0.44859
  H       -0.96848       -2.97545       -0.57417
  H       -1.55978       -3.57311        0.98288
  H        0.73764       -1.94465        0.37035
  H        0.35626       -2.18262        2.07467
  H        1.90525       -0.23280        1.57803
  H        0.47294        0.17550        2.50734
  H        1.28969        2.79129        0.80559
  H        0.18752        2.27035        2.07302
  H       -3.27829        0.58542        2.78958
  H       -1.57208        0.91229        2.54348
  H       -3.08229       -1.63035        2.01063
  H       -1.64485       -1.41259        2.99253
  H       -5.17562       -1.70723       -3.43403
  H       -5.79773       -0.06877       -3.22917
  H       -4.09314       -0.31947       -3.67093
  H        0.74981       -0.23243       -1.28228
  H        0.76818        1.50662       -1.50458
  H        2.84587       -1.38694       -1.14300
  H        5.28880       -1.33034       -1.01212
  H        4.66175        4.03596       -0.04858
  H        7.10613        4.15754        0.11044
  H        8.46217        2.13518       -0.20091
  H        7.38086       -0.01229       -0.66354
