60
dan008.xyz	      0.0000000
  C       -0.39729        3.30738       -0.06174
  C       -1.02598        2.81869       -1.40423
  N       -1.64321        1.46113       -1.41874
  C       -2.33035        1.01438       -0.17928
  C       -3.34230       -0.15324       -0.33909
  N       -2.77784       -1.39111        0.25339
  C       -2.62494       -2.57567       -0.62237
  C       -1.22009       -3.23863       -0.47605
  C        0.02398       -2.27056       -0.63953
  N        0.27065       -0.76547       -0.62889
  C        1.52908       -0.48784        0.13695
  C        1.57533        0.94793        0.73903
  N        1.80278        2.00516       -0.28449
  C        1.15543        3.31578       -0.02067
  C       -1.07094        0.46947       -2.36745
  C        0.31373       -0.10367       -1.97314
  C        3.21378        2.12349       -0.76260
  C        4.16525        3.07338        0.02321
  C        4.46408        2.63300        1.47552
  C       -2.94524       -1.61288        1.71446
  C       -4.40771       -1.65355        2.25824
  C       -5.32629       -2.81436        1.71828
  H       -0.77899        2.74531        0.78716
  H       -0.71594        4.34534        0.08253
  H       -0.28428        2.90678       -2.20128
  H       -1.83443        3.51633       -1.64838
  H       -2.89391        1.86585        0.21491
  H       -1.58582        0.73346        0.56601
  H       -4.26688        0.11584        0.17288
  H       -3.59429       -0.29014       -1.39051
  H       -3.38689       -3.31843       -0.38558
  H       -2.75836       -2.29242       -1.66834
  H       -1.14129       -4.02291       -1.23806
  H       -1.16549       -3.74858        0.49221
  H       -0.46193       -2.10214       -1.60877
  H       -0.29714       -2.02051        0.39054
  H        2.40205       -0.67165       -0.49192
  H        1.58962       -1.17497        0.98718
  H        2.36599        0.97683        1.48820
  H        0.63193        1.11667        1.25911
  H        1.46894        3.68248        0.96036
  H        1.48936        4.03543       -0.77387
  H       -0.96517        0.95640       -3.34155
  H       -1.76584       -0.35640       -2.50941
  H        0.64394       -0.81160       -2.73862
  H        1.02284        0.71913       -1.99443
  H        3.67556        1.13477       -0.80746
  H        3.16825        2.49654       -1.79123
  H        3.75801        4.08596        0.03466
  H        5.11652        3.10602       -0.51599
  H        3.57856        2.75705        2.09916
  H        5.26378        3.25377        1.88337
  H        4.78343        1.59014        1.49400
  H       -2.44342       -2.53894        2.00321
  H       -2.42934       -0.79905        2.23269
  H       -4.89327       -0.69139        2.07110
  H       -4.34816       -1.75494        3.34852
  H       -4.57472       -3.45616        2.21351
  H       -5.18894       -3.60189        0.95508
  H       -5.31405       -2.20916        0.79451
