dan001.sdf
  -ISIS-            3D

 49 51  0  0  0  0  0  0  0  0  1 V2000
   -6.7112   -3.1429    0.0978 N   0  0  0  0  0
   -5.5710   -2.4434   -0.0756 C   0  0  0  0  0
   -5.6306   -1.1835   -0.1132 N   0  0  0  0  0
   -4.6074   -0.4591   -0.2715 C   0  0  0  0  0
   -3.3483   -1.0656   -0.4139 C   0  0  0  0  0
   -3.3905   -2.4677   -0.3585 C   0  0  0  0  0
   -4.4853   -3.0746   -0.1943 N   0  0  0  0  0
   -4.8187    0.8710   -0.2922 N   0  0  0  0  0
   -2.0967   -0.4484   -0.5992 C   0  0  0  0  0
   -0.9875   -1.3062   -0.7184 C   0  0  0  0  0
   -1.2315   -2.6803   -0.6355 C   0  0  0  0  0
   -2.3676   -3.1978   -0.4664 N   0  0  0  0  0
   -1.9304    1.0523   -0.6677 C   0  0  0  0  0
    0.4277   -0.8172   -0.9242 C   0  0  0  0  0
    0.8789   -0.1502    0.2747 N   0  0  0  0  0
    1.9985    0.5947    0.3901 C   0  0  0  0  0
    2.1444    1.3719    1.5375 C   0  0  0  0  0
    3.2621    2.1908    1.7139 C   0  0  0  0  0
    4.3290    2.0767    0.8106 C   0  0  0  0  0
    4.1711    1.3784   -0.3979 C   0  0  0  0  0
    3.0105    0.6111   -0.5708 C   0  0  0  0  0
    3.4094    2.9089    2.8649 O   0  0  0  0  0
    5.4501    2.8317    1.0054 O   0  0  0  0  0
    5.2176    1.4111   -1.2815 O   0  0  0  0  0
    5.2486    0.4933   -2.3464 C   0  0  0  0  0
    6.4683    2.1808    1.7267 C   0  0  0  0  0
    2.9168    4.2248    2.7892 C   0  0  0  0  0
   -7.5512   -2.5746    0.1889 H   0  0  0  0  0
   -6.5959   -4.1543    0.1212 H   0  0  0  0  0
   -5.7930    1.1464   -0.1793 H   0  0  0  0  0
   -3.9966    1.4500   -0.4209 H   0  0  0  0  0
   -0.4076   -3.4075   -0.7159 H   0  0  0  0  0
   -2.2633    1.5223    0.2851 H   0  0  0  0  0
   -0.8830    1.3903   -0.8149 H   0  0  0  0  0
   -2.5028    1.4679   -1.5273 H   0  0  0  0  0
    1.1148   -1.6692   -1.1316 H   0  0  0  0  0
    0.4633   -0.1380   -1.8067 H   0  0  0  0  0
    0.2898   -0.0361    1.1019 H   0  0  0  0  0
    1.3672    1.3527    2.3196 H   0  0  0  0  0
    2.8926   -0.0080   -1.4721 H   0  0  0  0  0
    6.2202    0.6460   -2.8669 H   0  0  0  0  0
    5.2107   -0.5478   -1.9512 H   0  0  0  0  0
    4.4223    0.7174   -3.0594 H   0  0  0  0  0
    7.3097    2.9028    1.8249 H   0  0  0  0  0
    6.0912    1.9059    2.7389 H   0  0  0  0  0
    6.8085    1.2824    1.1616 H   0  0  0  0  0
    3.1086    4.7012    3.7765 H   0  0  0  0  0
    3.4617    4.7817    1.9922 H   0  0  0  0  0
    1.8204    4.1991    2.5911 H   0  0  0  0  0
  1  2  1  0  0  0
  1 28  1  0  0  0
  1 29  1  0  0  0
  2  3  4  0  0  0
  2  7  4  0  0  0
  3  4  4  0  0  0
  4  5  4  0  0  0
  4  8  1  0  0  0
  5  6  4  0  0  0
  5  9  4  0  0  0
  6  7  4  0  0  0
  6 12  4  0  0  0
  8 30  1  0  0  0
  8 31  1  0  0  0
  9 10  4  0  0  0
  9 13  1  0  0  0
 10 11  4  0  0  0
 10 14  1  0  0  0
 11 12  4  0  0  0
 11 32  1  0  0  0
 13 33  1  0  0  0
 13 34  1  0  0  0
 13 35  1  0  0  0
 14 15  1  0  0  0
 14 36  1  0  0  0
 14 37  1  0  0  0
 15 16  1  0  0  0
 15 38  1  0  0  0
 16 17  4  0  0  0
 16 21  4  0  0  0
 17 18  4  0  0  0
 17 39  1  0  0  0
 18 19  4  0  0  0
 18 22  1  0  0  0
 19 20  4  0  0  0
 19 23  1  0  0  0
 20 21  4  0  0  0
 20 24  1  0  0  0
 21 40  1  0  0  0
 22 27  1  0  0  0
 23 26  1  0  0  0
 24 25  1  0  0  0
 25 41  1  0  0  0
 25 42  1  0  0  0
 25 43  1  0  0  0
 26 44  1  0  0  0
 26 45  1  0  0  0
 26 46  1  0  0  0
 27 47  1  0  0  0
 27 48  1  0  0  0
 27 49  1  0  0  0
M  END
$$$$
