dan003.sdf
  -ISIS-            3D

 37 39  0  0  0  0  0  0  0  0  1 V2000
   -7.0246   -3.0652   -0.7815 N   0  0  0  0  0
   -5.8872   -2.3412   -0.8197 C   0  0  0  0  0
   -5.9687   -1.0826   -0.8637 N   0  0  0  0  0
   -4.9497   -0.3363   -0.9042 C   0  0  0  0  0
   -3.6701   -0.9156   -0.9023 C   0  0  0  0  0
   -3.6884   -2.3183   -0.8505 C   0  0  0  0  0
   -4.7817   -2.9486   -0.8120 N   0  0  0  0  0
   -5.1847    0.9890   -0.9484 N   0  0  0  0  0
   -2.4189   -0.2714   -0.9453 C   0  0  0  0  0
   -1.2853   -1.1050   -0.9365 C   0  0  0  0  0
   -1.5077   -2.4844   -0.8793 C   0  0  0  0  0
   -2.6444   -3.0264   -0.8398 N   0  0  0  0  0
   -2.2773    1.2327   -1.0024 C   0  0  0  0  0
    0.1334   -0.5859   -0.9854 C   0  0  0  0  0
    0.4380    0.0934    0.2516 N   0  0  0  0  0
    1.5084    0.8885    0.4665 C   0  0  0  0  0
    1.4998    1.7037    1.6008 C   0  0  0  0  0
    2.5757    2.5522    1.8811 C   0  0  0  0  0
    3.6842    2.5926    1.0195 C   0  0  0  0  0
    3.6945    1.7704   -0.1194 C   0  0  0  0  0
    2.6131    0.9247   -0.3883 C   0  0  0  0  0
    2.4750    3.5274    3.3096 Cl  0  0  0  0  0
    5.0239    3.6424    1.3581 Cl  0  0  0  0  0
    5.0199    1.7509   -1.2357 Cl  0  0  0  0  0
   -7.8813   -2.5150   -0.8003 H   0  0  0  0  0
   -6.8901   -4.0739   -0.7446 H   0  0  0  0  0
   -6.1706    1.2443   -0.9426 H   0  0  0  0  0
   -4.3651    1.5843   -0.9833 H   0  0  0  0  0
   -0.6645   -3.1938   -0.8653 H   0  0  0  0  0
   -2.7252    1.6998   -0.0965 H   0  0  0  0  0
   -1.2273    1.5923   -1.0324 H   0  0  0  0  0
   -2.7563    1.6328   -1.9245 H   0  0  0  0  0
    0.8567   -1.4237   -1.1112 H   0  0  0  0  0
    0.2508    0.0908   -1.8629 H   0  0  0  0  0
   -0.2384    0.2030    1.0101 H   0  0  0  0  0
    0.6286    1.6738    2.2773 H   0  0  0  0  0
    2.6414    0.2823   -1.2835 H   0  0  0  0  0
  1  2  1  0  0  0
  1 25  1  0  0  0
  1 26  1  0  0  0
  2  3  4  0  0  0
  2  7  4  0  0  0
  3  4  4  0  0  0
  4  5  4  0  0  0
  4  8  1  0  0  0
  5  6  4  0  0  0
  5  9  4  0  0  0
  6  7  4  0  0  0
  6 12  4  0  0  0
  8 27  1  0  0  0
  8 28  1  0  0  0
  9 10  4  0  0  0
  9 13  1  0  0  0
 10 11  4  0  0  0
 10 14  1  0  0  0
 11 12  4  0  0  0
 11 29  1  0  0  0
 13 30  1  0  0  0
 13 31  1  0  0  0
 13 32  1  0  0  0
 14 15  1  0  0  0
 14 33  1  0  0  0
 14 34  1  0  0  0
 15 16  1  0  0  0
 15 35  1  0  0  0
 16 17  4  0  0  0
 16 21  4  0  0  0
 17 18  4  0  0  0
 17 36  1  0  0  0
 18 19  4  0  0  0
 18 22  1  0  0  0
 19 20  4  0  0  0
 19 23  1  0  0  0
 20 21  4  0  0  0
 20 24  1  0  0  0
 21 37  1  0  0  0
M  END
$$$$
