51
dan009.xyz	      0.0000000
  C        0.04767        3.31623        0.30531
  C       -1.42367        2.85677        0.50168
  N       -1.57792        1.37432        0.53017
  C       -2.95647        0.93789        0.12780
  C       -2.87260       -0.37152       -0.74858
  N       -3.41887       -1.77630       -0.70071
  C       -2.47820       -2.79379       -1.27296
  C       -1.04736       -2.94413       -0.59350
  C       -0.33804       -2.24847        0.65317
  N        0.19525       -0.87278        0.38862
  C        1.47871       -0.88331       -0.36798
  C        1.57153        0.33774       -1.32618
  N        1.66102        1.61444       -0.57301
  C        0.70930        2.68779       -0.95534
  C       -1.10978        0.74417        1.80699
  C        0.22774       -0.02659        1.61642
  C       -4.12979       -2.19874        0.53790
  C        3.02770        2.02872       -0.15172
  C        3.86252        2.81053       -1.20154
  F        3.70678        2.25043       -2.57377
  F        5.30525        2.73345       -0.82643
  F        3.47941        4.25232       -1.21656
  H        0.62714        3.07848        1.19826
  H        0.04733        4.40331        0.18825
  H       -1.99222        3.26834       -0.33736
  H       -1.82380        3.29450        1.41916
  H       -3.41321        1.71853       -0.49017
  H       -3.59313        0.79736        1.00646
  H       -2.37779       -0.72757        0.16243
  H       -3.93724       -0.14364       -0.94921
  H       -2.32730       -2.54060       -2.33000
  H       -2.97431       -3.77108       -1.27024
  H       -0.94870       -1.94153       -1.02808
  H       -1.66494       -3.38933        0.20446
  H        0.48401       -2.89430        0.97787
  H       -1.04463       -2.18532        1.48891
  H        2.32973       -0.90191        0.31545
  H        1.53070       -1.78087       -0.99072
  H        2.44551        0.21480       -1.96754
  H        0.68546        0.32774       -1.96496
  H        1.22296        3.46582       -1.51940
  H       -0.07529        2.29047       -1.60253
  H       -0.96694        1.50228        2.58043
  H       -1.85375        0.03869        2.18407
  H        1.03163        0.70570        1.56233
  H        0.41713       -0.64382        2.49806
  H       -4.90526       -1.47125        0.78496
  H       -4.60873       -3.16568        0.37443
  H       -3.44319       -2.28246        1.38041
  H        2.94632        2.64747        0.74544
  H        3.58895        1.13353        0.12814
