dan002.sdf
  -ISIS-            3D

 52 54  0  0  0  0  0  0  0  0  1 V2000
   -7.1324   -2.3766   -0.3942 N   0  0  0  0  0
   -5.9402   -1.7500   -0.4685 C   0  0  0  0  0
   -5.8935   -0.5070   -0.2551 N   0  0  0  0  0
   -4.8164    0.1515   -0.3084 C   0  0  0  0  0
   -3.6168   -0.5115   -0.6158 C   0  0  0  0  0
   -3.7752   -1.8898   -0.8297 C   0  0  0  0  0
   -4.9139   -2.4288   -0.7471 N   0  0  0  0  0
   -4.9094    1.4694   -0.0465 N   0  0  0  0  0
   -2.3228    0.0319   -0.7270 C   0  0  0  0  0
   -1.2872   -0.8719   -1.0262 C   0  0  0  0  0
   -1.6437   -2.2132   -1.2006 C   0  0  0  0  0
   -2.8173   -2.6623   -1.1073 N   0  0  0  0  0
   -2.0390    1.5043   -0.5440 C   0  0  0  0  0
    0.1675   -0.4722   -1.1489 C   0  0  0  0  0
    0.7367   -0.1188    0.1490 N   0  0  0  0  0
    1.6904    0.8393    0.1964 C   0  0  0  0  0
    1.4217    2.0613    0.8039 C   0  0  0  0  0
    2.4110    3.0423    0.8840 C   0  0  0  0  0
    3.6394    2.8561    0.2277 C   0  0  0  0  0
    3.9469    1.6074   -0.3537 C   0  0  0  0  0
    2.9462    0.6239   -0.3675 C   0  0  0  0  0
    2.1156    4.2532    1.4415 O   0  0  0  0  0
    4.5051    3.9160    0.3174 O   0  0  0  0  0
    5.1715    1.4265   -0.9397 O   0  0  0  0  0
    5.4287    0.2664   -1.6907 C   0  0  0  0  0
    5.8937    3.7022    0.3083 C   0  0  0  0  0
    2.3017    4.3068    2.8356 C   0  0  0  0  0
    0.4744   -0.8546    1.3774 C   0  0  0  0  0
   -7.9176   -1.7735   -0.1564 H   0  0  0  0  0
   -7.1059   -3.3759   -0.5881 H   0  0  0  0  0
   -5.8530    1.7966    0.1535 H   0  0  0  0  0
   -4.0374    1.9857   -0.0537 H   0  0  0  0  0
   -0.8824   -2.9754   -1.4324 H   0  0  0  0  0
   -2.2337    1.8097    0.5091 H   0  0  0  0  0
   -0.9905    1.7932   -0.7634 H   0  0  0  0  0
   -2.6515    2.1114   -1.2482 H   0  0  0  0  0
    0.7753   -1.3094   -1.5625 H   0  0  0  0  0
    0.2650    0.3614   -1.8818 H   0  0  0  0  0
    0.4269    2.2612    1.2348 H   0  0  0  0  0
    3.1190   -0.3538   -0.8421 H   0  0  0  0  0
    6.4543    0.3810   -2.1074 H   0  0  0  0  0
    5.4134   -0.6243   -1.0215 H   0  0  0  0  0
    4.7055    0.1926   -2.5352 H   0  0  0  0  0
    6.3574    4.6481    0.6671 H   0  0  0  0  0
    6.1606    2.8813    1.0135 H   0  0  0  0  0
    6.2404    3.5213   -0.7339 H   0  0  0  0  0
    2.0588    5.3444    3.1572 H   0  0  0  0  0
    1.6076    3.5892    3.3309 H   0  0  0  0  0
    3.3651    4.0775    3.0777 H   0  0  0  0  0
    1.4241   -1.0806    1.9144 H   0  0  0  0  0
   -0.1891   -0.2534    2.0396 H   0  0  0  0  0
   -0.0260   -1.8245    1.1600 H   0  0  0  0  0
  1  2  1  0  0  0
  1 29  1  0  0  0
  1 30  1  0  0  0
  2  3  4  0  0  0
  2  7  4  0  0  0
  3  4  4  0  0  0
  4  5  4  0  0  0
  4  8  1  0  0  0
  5  6  4  0  0  0
  5  9  4  0  0  0
  6  7  4  0  0  0
  6 12  4  0  0  0
  8 31  1  0  0  0
  8 32  1  0  0  0
  9 10  4  0  0  0
  9 13  1  0  0  0
 10 11  4  0  0  0
 10 14  1  0  0  0
 11 12  4  0  0  0
 11 33  1  0  0  0
 13 34  1  0  0  0
 13 35  1  0  0  0
 13 36  1  0  0  0
 14 15  1  0  0  0
 14 37  1  0  0  0
 14 38  1  0  0  0
 15 16  1  0  0  0
 15 28  1  0  0  0
 16 17  4  0  0  0
 16 21  4  0  0  0
 17 18  4  0  0  0
 17 39  1  0  0  0
 18 19  4  0  0  0
 18 22  1  0  0  0
 19 20  4  0  0  0
 19 23  1  0  0  0
 20 21  4  0  0  0
 20 24  1  0  0  0
 21 40  1  0  0  0
 22 27  1  0  0  0
 23 26  1  0  0  0
 24 25  1  0  0  0
 25 41  1  0  0  0
 25 42  1  0  0  0
 25 43  1  0  0  0
 26 44  1  0  0  0
 26 45  1  0  0  0
 26 46  1  0  0  0
 27 47  1  0  0  0
 27 48  1  0  0  0
 27 49  1  0  0  0
 28 50  1  0  0  0
 28 51  1  0  0  0
 28 52  1  0  0  0
M  END
$$$$
